! B3LYP D4 def2-TZVP VeryTightSCF Freq


%pal
   nprocs 8
end

%maxcore 9000

%geom
   MaxIter 600
end

* xyz 0 1
O       -3.311088000      5.913209000     -0.307027000
H       -3.289426000      5.045206000     -0.759691000
H       -4.007511000      5.808474000      0.364194000
O       -5.710068000      2.269588000      1.253059000
H       -4.784719000      2.073208000      1.456822000
H       -5.969597000      1.637674000      0.555301000
O       -2.717454000      3.313655000     -0.976146000
H       -1.794758000      3.392081000     -1.280684000
H       -3.106340000      2.509293000     -1.417799000
O       -0.709287000      6.006511000      0.240315000
H       -0.386488000      6.912881000      0.226048000
H       -1.701092000      6.052406000      0.121012000
O        0.565925000      1.875248000      0.548543000
H        0.556786000      2.538130000      1.274441000
H        0.434335000      2.428942000     -0.241355000
O       -3.681344000      1.071316000     -1.999342000
H       -3.148664000      0.371291000     -1.568054000
H       -4.599727000      0.885773000     -1.737008000
O       -5.168148000      4.881504000      1.628707000
H       -5.581595000      4.019437000      1.381633000
H       -5.736350000      5.281889000      2.293723000
O       -2.897237000      3.160601000      1.731636000
H       -2.811469000      3.214604000      0.745874000
H       -3.528778000      3.858659000      1.976366000
O       -0.020535000      3.915485000     -1.374772000
H        0.388774000      4.128705000     -2.218818000
H       -0.124318000      4.756365000     -0.871587000
O        0.487298000     -0.712482000     -0.603847000
H        0.669930000      0.118990000     -0.126694000
H        1.117012000     -1.355958000     -0.265141000
O       -2.325357000     -0.809772000     -0.417077000
H       -1.405132000     -1.021569000     -0.665860000
H       -2.211660000     -0.314062000      0.434344000
O       -6.111478000      0.285885000     -0.709993000
H       -5.709474000     -0.579543000     -0.436384000
H       -6.930755000      0.078384000     -1.170226000
O       -4.756341000     -1.952083000     -0.126833000
H       -3.809826000     -1.705030000     -0.257334000
H       -4.803856000     -2.406913000      0.719562000
O       -1.713169000      0.625986000      1.764532000
H       -0.907483000      1.013203000      1.371415000
H       -2.249730000      1.398096000      2.008291000
O       -0.167499000      3.938180000      2.247245000
H       -0.190640000      4.751199000      1.716604000
H       -1.103195000      3.668584000      2.286362000
*
