14
	Energy:      -5.0759632
C       -1.9441597463      1.3745593897     -0.1618041094                 
C       -0.5826006671      1.4296641421      0.5124106972                 
C        0.5498982653      1.4259859272     -0.5124007539                 
C        1.9114435655      1.4816387667      0.1617968598                 
H       -2.0925248164      2.2385369748     -0.8174571002                 
H       -2.7397405362      1.3779813683      0.5898345288                 
H       -2.0480707623      0.4652231865     -0.7623499058                 
H       -0.5233478777      2.3334937530      1.1299528362                 
H       -0.4792220956      0.5701723873      1.1849952910                 
H        0.4463224394      2.2852457215     -1.1852494156                 
H        0.4908537089      0.5219515464     -1.1296651256                 
H        2.0152200321      2.3913439698      0.7618095046                 
H        2.0599236525      0.6180691406      0.8179586296                 
H        2.7070322426      1.4779030656     -0.5898319366
