! B3LYP D4 def2-TZVP VeryTightSCF 

%pal
   nprocs 8
end

%maxcore 9000

%geom
   MaxIter 600
end

* xyz 0 1
O       -3.590911000      3.401148000      0.030431000
H       -3.400145000      2.457871000     -0.097306000
H       -4.003159000      3.691935000     -0.788505000
O       -2.924634000      0.582336000     -0.124907000
H       -1.979662000      0.486433000      0.038299000
H       -3.361074371   0.128239641   0.599604076
*
